Info: SIMULATION PARAMETERS:
Info: TIMESTEP               2
Info: NUMBER OF STEPS        500000
Info: STEPS PER CYCLE        20
Info: PERIODIC CELL BASIS 1  54.33 0 0
Info: PERIODIC CELL BASIS 2  0 49.91 0
Info: PERIODIC CELL BASIS 3  0 0 51.76
Info: PERIODIC CELL CENTER   24.1 45.2 -7.8
Info: WRAPPING WATERS AROUND PERIODIC BOUNDARIES ON OUTPUT.
Info: FIRST LDB TIMESTEP     100
Info: LAST LDB TIMESTEP     -1
Info: HOM BACKGROUND SCALING 1
Info: PME BACKGROUND SCALING 1
Info: MIN ATOMS PER PATCH    40
Info: VELOCITY FILE          heat.vel
Info: CENTER OF MASS MOVING INITIALLY? NO
Info: DIELECTRIC             1
Info: EXCLUDE                SCALED ONE-FOUR
Info: 1-4 ELECTROSTATICS SCALED BY 1
Info: MODIFIED 1-4 VDW PARAMETERS WILL BE USED
Info: DCD FILENAME           equil.dcd
Info: DCD FREQUENCY          500
Info: DCD FIRST STEP         500
Info: DCD FILE WILL CONTAIN UNIT CELL DATA
Info: NO EXTENDED SYSTEM TRAJECTORY OUTPUT
Info: NO VELOCITY DCD OUTPUT
Info: NO FORCE DCD OUTPUT
Info: OUTPUT FILENAME        equil
Info: RESTART FILENAME       restart_equil
Info: RESTART FREQUENCY      500
Info: BINARY RESTART FILES WILL BE USED
Info: SWITCHING ACTIVE
Info: SWITCHING ON           8
Info: SWITCHING OFF          12
Info: PAIRLIST DISTANCE      13.5
Info: PAIRLIST SHRINK RATE   0.01
Info: PAIRLIST GROW RATE     0.01
Info: PAIRLIST TRIGGER       0.3
Info: PAIRLISTS PER CYCLE    2
Info: PAIRLISTS ENABLED
Info: MARGIN                 2.5
Info: HYDROGEN GROUP CUTOFF  2.5
Info: PATCH DIMENSION        18.5
Info: ENERGY OUTPUT STEPS    100
Info: CROSSTERM ENERGY INCLUDED IN DIHEDRAL
Info: TIMING OUTPUT STEPS    100
Info: LANGEVIN DYNAMICS ACTIVE
Info: LANGEVIN TEMPERATURE   300
Info: LANGEVIN USING BBK INTEGRATOR
Info: LANGEVIN DAMPING COEFFICIENT IS 1 INVERSE PS
Info: LANGEVIN DYNAMICS NOT APPLIED TO HYDROGENS
Info: VELOCITY RESCALE FREQ  1
Info: VELOCITY RESCALE TEMP  300
Info: LANGEVIN PISTON PRESSURE CONTROL ACTIVE
Info:        TARGET PRESSURE IS 1.01325 BAR
Info:     OSCILLATION PERIOD IS 100 FS
Info:             DECAY TIME IS 50 FS
Info:     PISTON TEMPERATURE IS 300 K
Info:       PRESSURE CONTROL IS GROUP-BASED
Info:    INITIAL STRAIN RATE IS 0 0 0
Info:       CELL FLUCTUATION IS ISOTROPIC
Info: PARTICLE MESH EWALD (PME) ACTIVE
Info: PME TOLERANCE               1e-006
Info: PME EWALD COEFFICIENT       0.257952
Info: PME INTERPOLATION ORDER     4
Info: PME GRID DIMENSIONS         56 50 52
Info: PME MAXIMUM GRID SPACING    1.5
Info: FULL ELECTROSTATIC EVALUATION FREQUENCY      4
Info: USING VERLET I (r-RESPA) MTS SCHEME.
Info: C1 SPLITTING OF LONG RANGE ELECTROSTATICS
Info: PLACING ATOMS IN PATCHES BY HYDROGEN GROUPS
Info: RIGID BONDS TO HYDROGEN : ALL
Info:         ERROR TOLERANCE : 1e-005
Info:          MAX ITERATIONS : 100
Info: RIGID WATER USING SETTLE ALGORITHM
Info: RANDOM NUMBER SEED     2010
Info: USE HYDROGEN BONDS?    NO
Info: COORDINATE PDB         heat.coor
Info: STRUCTURE FILE         ionized.psf
Info: PARAMETER file: CHARMM format!
Info: PARAMETERS             par_all22_prot_cmap.inp
Info: USING ARITHMETIC MEAN TO COMBINE L-J SIGMA PARAMETERS
Info: SUMMARY OF PARAMETERS:
Info: 139 BONDS
Info: 345 ANGLES
Info: 452 DIHEDRAL
Info: 43 IMPROPER
Info: 6 CROSSTERM
Info: 95 VDW
Info: 0 VDW_PAIRS
Info: 0 NBTHOLE_PAIRS
Info:
Info: STRUCTURE SUMMARY:
Info: 12547 ATOMS
Info: 9242 BONDS
Info: 8017 ANGLES
Info: 6840 DIHEDRALS
Info: 465 IMPROPERS
Info: 167 CROSSTERMS
Info: 0 EXCLUSIONS
Info: 11270 RIGID BONDS
Info: 26371 DEGREES OF FREEDOM
Info: 4604 HYDROGEN GROUPS
Info: 4 ATOMS IN LARGEST HYDROGEN GROUP
Info: 4604 MIGRATION GROUPS
Info: 4 ATOMS IN LARGEST MIGRATION GROUP
Info: TOTAL MASS = 78077.1 amu
Info: TOTAL CHARGE = 1.82167e-006 e
Info: MASS DENSITY = 0.923764 g/cm^3
Info: ATOM DENSITY = 0.0893961 atoms/A^3
Info:
Info: ADDED 24008 IMPLICIT EXCLUSIONS
Info: NONBONDED TABLE R-SQUARED SPACING: 0.0625
Info: NONBONDED TABLE SIZE: 769 POINTS
Info: REMOVING COM VELOCITY 0.0185162 -0.0551592 0.0415413
ETITLE: TS BOND ANGLE DIHED IMPRP ELECT VDW BOUNDARY MISC KINETIC TOTAL TEMP POTENTIAL TOTAL3 TEMPAVG PRESSURE GPRESSURE VOLUME PRESSAVG GPRESSAVG
ENERGY: 0 512.5571 1380.7461 600.2021 75.3738 -40441.9886 3187.6359 0.0000 0.0000 7872.3713 -26813.1022 300.4480 -34685.4735 -26778.2273 300.4480 -1049.6362 -988.9420 140352.9491 -1049.6362 -988.9420
ENERGY: 100000 496.0803 1429.9035 602.0262 88.7300 -40013.4040 2320.2641 0.0000 0.0000 7853.1808 -27223.2190 299.7156 -35076.3998 -27187.6423 299.9439 -1147.7079 -1068.0370 122462.5557 -15.0507 -14.8148
ENERGY: 200000 491.2281 1475.6056 591.9454 103.0789 -40268.7835 2403.0324 0.0000 0.0000 7876.1089 -27327.7841 300.5907 -35203.8930 -27295.2755 299.9838 -674.7814 -596.0090 121902.9301 3.0844 3.7668
ENERGY: 300000 487.3937 1431.8162 591.5821 99.2774 -40517.8443 2573.1507 0.0000 0.0000 7857.3230 -27477.3011 299.8737 -35334.6242 -27439.8676 299.9399 -53.2394 29.2533 121048.1314 -31.8990 -31.3422
ENERGY: 400000 518.1657 1420.5538 613.7963 95.0327 -40314.1632 2544.6244 0.0000 0.0000 7833.5592 -27288.4310 298.9668 -35121.9903 -27252.3565 299.9008 -182.9703 -115.5912 121903.5326 -13.0999 -14.0297
ENERGY: 500000 476.1271 1434.0910 608.7530 84.0657 -40654.4786 2690.0032 0.0000 0.0000 7869.9158 -27491.5228 300.3543 -35361.4386 -27457.3176 299.9960 61.7435 138.6433 121548.1076 -6.3949 -7.1159
