Info: SIMULATION PARAMETERS:
Info: TIMESTEP               2
Info: NUMBER OF STEPS        500000
Info: STEPS PER CYCLE        20
Info: PERIODIC CELL BASIS 1  54.33 0 0
Info: PERIODIC CELL BASIS 2  0 49.91 0
Info: PERIODIC CELL BASIS 3  0 0 51.76
Info: PERIODIC CELL CENTER   24.1 45.2 -7.8
Info: WRAPPING WATERS AROUND PERIODIC BOUNDARIES ON OUTPUT.
Info: FIRST LDB TIMESTEP     100
Info: LAST LDB TIMESTEP     -1
Info: HOM BACKGROUND SCALING 1
Info: PME BACKGROUND SCALING 1
Info: MIN ATOMS PER PATCH    40
Info: VELOCITY FILE          heat.vel
Info: CENTER OF MASS MOVING INITIALLY? NO
Info: DIELECTRIC             1
Info: EXCLUDE                SCALED ONE-FOUR
Info: 1-4 ELECTROSTATICS SCALED BY 1
Info: MODIFIED 1-4 VDW PARAMETERS WILL BE USED
Info: DCD FILENAME           equil.dcd
Info: DCD FREQUENCY          500
Info: DCD FIRST STEP         500
Info: DCD FILE WILL CONTAIN UNIT CELL DATA
Info: NO EXTENDED SYSTEM TRAJECTORY OUTPUT
Info: NO VELOCITY DCD OUTPUT
Info: NO FORCE DCD OUTPUT
Info: OUTPUT FILENAME        equil
Info: RESTART FILENAME       restart_equil
Info: RESTART FREQUENCY      500
Info: BINARY RESTART FILES WILL BE USED
Info: SWITCHING ACTIVE
Info: SWITCHING ON           8
Info: SWITCHING OFF          12
Info: PAIRLIST DISTANCE      13.5
Info: PAIRLIST SHRINK RATE   0.01
Info: PAIRLIST GROW RATE     0.01
Info: PAIRLIST TRIGGER       0.3
Info: PAIRLISTS PER CYCLE    2
Info: PAIRLISTS ENABLED
Info: MARGIN                 2.5
Info: HYDROGEN GROUP CUTOFF  2.5
Info: PATCH DIMENSION        18.5
Info: ENERGY OUTPUT STEPS    100
Info: CROSSTERM ENERGY INCLUDED IN DIHEDRAL
Info: TIMING OUTPUT STEPS    100
Info: LANGEVIN DYNAMICS ACTIVE
Info: LANGEVIN TEMPERATURE   300
Info: LANGEVIN USING BBK INTEGRATOR
Info: LANGEVIN DAMPING COEFFICIENT IS 1 INVERSE PS
Info: LANGEVIN DYNAMICS NOT APPLIED TO HYDROGENS
Info: VELOCITY RESCALE FREQ  1
Info: VELOCITY RESCALE TEMP  300
Info: LANGEVIN PISTON PRESSURE CONTROL ACTIVE
Info:        TARGET PRESSURE IS 1.01325 BAR
Info:     OSCILLATION PERIOD IS 100 FS
Info:             DECAY TIME IS 50 FS
Info:     PISTON TEMPERATURE IS 300 K
Info:       PRESSURE CONTROL IS GROUP-BASED
Info:    INITIAL STRAIN RATE IS 0 0 0
Info:       CELL FLUCTUATION IS ISOTROPIC
Info: PARTICLE MESH EWALD (PME) ACTIVE
Info: PME TOLERANCE               1e-006
Info: PME EWALD COEFFICIENT       0.257952
Info: PME INTERPOLATION ORDER     4
Info: PME GRID DIMENSIONS         56 50 52
Info: PME MAXIMUM GRID SPACING    1.5
Info: FULL ELECTROSTATIC EVALUATION FREQUENCY      4
Info: USING VERLET I (r-RESPA) MTS SCHEME.
Info: C1 SPLITTING OF LONG RANGE ELECTROSTATICS
Info: PLACING ATOMS IN PATCHES BY HYDROGEN GROUPS
Info: RIGID BONDS TO HYDROGEN : ALL
Info:         ERROR TOLERANCE : 1e-005
Info:          MAX ITERATIONS : 100
Info: RIGID WATER USING SETTLE ALGORITHM
Info: RANDOM NUMBER SEED     2010
Info: USE HYDROGEN BONDS?    NO
Info: COORDINATE PDB         heat.coor
Info: STRUCTURE FILE         ionized.psf
Info: PARAMETER file: CHARMM format!
Info: PARAMETERS             par_all22_prot_cmap.inp
Info: USING ARITHMETIC MEAN TO COMBINE L-J SIGMA PARAMETERS
Info: SUMMARY OF PARAMETERS:
Info: 139 BONDS
Info: 345 ANGLES
Info: 452 DIHEDRAL
Info: 43 IMPROPER
Info: 6 CROSSTERM
Info: 95 VDW
Info: 0 VDW_PAIRS
Info: 0 NBTHOLE_PAIRS
Info:
Info: STRUCTURE SUMMARY:
Info: 12547 ATOMS
Info: 9242 BONDS
Info: 8017 ANGLES
Info: 6840 DIHEDRALS
Info: 465 IMPROPERS
Info: 167 CROSSTERMS
Info: 0 EXCLUSIONS
Info: 11270 RIGID BONDS
Info: 26371 DEGREES OF FREEDOM
Info: 4604 HYDROGEN GROUPS
Info: 4 ATOMS IN LARGEST HYDROGEN GROUP
Info: 4604 MIGRATION GROUPS
Info: 4 ATOMS IN LARGEST MIGRATION GROUP
Info: TOTAL MASS = 78077.1 amu
Info: TOTAL CHARGE = 1.82167e-006 e
Info: MASS DENSITY = 0.923764 g/cm^3
Info: ATOM DENSITY = 0.0893961 atoms/A^3
Info:
Info: ADDED 24008 IMPLICIT EXCLUSIONS
Info: NONBONDED TABLE R-SQUARED SPACING: 0.0625
Info: NONBONDED TABLE SIZE: 769 POINTS
Info: REMOVING COM VELOCITY 0.0185162 -0.0551592 0.0415413
ETITLE: TS BOND ANGLE DIHED IMPRP ELECT VDW BOUNDARY MISC KINETIC TOTAL TEMP POTENTIAL TOTAL3 TEMPAVG PRESSURE GPRESSURE VOLUME PRESSAVG GPRESSAVG
ENERGY: 0 512.5571 1380.7461 600.2021 75.3738 -40441.9886 3187.6359 0.0000 0.0000 7872.3713 -26813.1022 300.4480 -34685.4735 -26778.2273 300.4480 -1049.6362 -988.9420 140352.9491 -1049.6362 -988.9420
ENERGY: 59200 494.8653 1393.2183 622.8525 92.1112 -40671.7305 2736.9680 0.0000 0.0000 7837.7725 -27493.9427 299.1276 -35331.7152 -27455.2410 300.0547 176.5117 253.8080 121137.0656 -2.7077 -2.9904
ENERGY: 118300 461.7475 1378.8852 602.5827 86.0444 -40431.5067 2736.9062 0.0000 0.0000 7853.8174 -27311.5233 299.7399 -35165.3407 -27278.0941 300.0050 1393.5297 1464.7980 121206.7659 0.8431 0.6278
ENERGY: 177500 472.8892 1421.5977 608.8843 83.4652 -40373.1659 2572.8152 0.0000 0.0000 7855.4414 -27358.0729 299.8019 -35213.5143 -27322.5444 299.9967 -7.8052 76.7643 121787.0696 32.1775 32.0065
ENERGY: 236600 496.7623 1485.1468 624.1416 88.0975 -40219.3554 2424.9469 0.0000 0.0000 7836.7920 -27263.4682 299.0901 -35100.2602 -27224.3724 300.0429 -626.9140 -544.7717 121579.5125 1.7172 1.6715
ENERGY: 295800 492.9508 1387.6858 584.6076 108.3490 -40580.3115 2586.5643 0.0000 0.0000 7856.8707 -27563.2833 299.8564 -35420.1540 -27523.8230 300.0277 -266.0478 -191.0861 121635.7906 -7.2350 -7.1935
