Info: SIMULATION PARAMETERS:
Info: TIMESTEP               2
Info: NUMBER OF STEPS        500000
Info: STEPS PER CYCLE        20
Info: PERIODIC CELL BASIS 1  52.05 0 0
Info: PERIODIC CELL BASIS 2  0 62.48 0
Info: PERIODIC CELL BASIS 3  0 0 53.55
Info: PERIODIC CELL CENTER   -10.6 5.2 -12
Info: WRAPPING WATERS AROUND PERIODIC BOUNDARIES ON OUTPUT.
Info: FIRST LDB TIMESTEP     100
Info: LAST LDB TIMESTEP     -1
Info: HOM BACKGROUND SCALING 1
Info: PME BACKGROUND SCALING 1
Info: MIN ATOMS PER PATCH    40
Info: VELOCITY FILE          heat.vel
Info: CENTER OF MASS MOVING INITIALLY? NO
Info: DIELECTRIC             1
Info: EXCLUDE                SCALED ONE-FOUR
Info: 1-4 ELECTROSTATICS SCALED BY 1
Info: MODIFIED 1-4 VDW PARAMETERS WILL BE USED
Info: DCD FILENAME           equil.dcd
Info: DCD FREQUENCY          500
Info: DCD FIRST STEP         500
Info: DCD FILE WILL CONTAIN UNIT CELL DATA
Info: NO EXTENDED SYSTEM TRAJECTORY OUTPUT
Info: NO VELOCITY DCD OUTPUT
Info: NO FORCE DCD OUTPUT
Info: OUTPUT FILENAME        equil
Info: RESTART FILENAME       restart_equil
Info: RESTART FREQUENCY      500
Info: BINARY RESTART FILES WILL BE USED
Info: SWITCHING ACTIVE
Info: SWITCHING ON           8
Info: SWITCHING OFF          12
Info: PAIRLIST DISTANCE      13.5
Info: PAIRLIST SHRINK RATE   0.01
Info: PAIRLIST GROW RATE     0.01
Info: PAIRLIST TRIGGER       0.3
Info: PAIRLISTS PER CYCLE    2
Info: PAIRLISTS ENABLED
Info: MARGIN                 2.5
Info: HYDROGEN GROUP CUTOFF  2.5
Info: PATCH DIMENSION        18.5
Info: ENERGY OUTPUT STEPS    100
Info: CROSSTERM ENERGY INCLUDED IN DIHEDRAL
Info: TIMING OUTPUT STEPS    100
Info: LANGEVIN DYNAMICS ACTIVE
Info: LANGEVIN TEMPERATURE   300
Info: LANGEVIN USING BBK INTEGRATOR
Info: LANGEVIN DAMPING COEFFICIENT IS 1 INVERSE PS
Info: LANGEVIN DYNAMICS NOT APPLIED TO HYDROGENS
Info: VELOCITY RESCALE FREQ  1
Info: VELOCITY RESCALE TEMP  300
Info: LANGEVIN PISTON PRESSURE CONTROL ACTIVE
Info:        TARGET PRESSURE IS 1.01325 BAR
Info:     OSCILLATION PERIOD IS 100 FS
Info:             DECAY TIME IS 50 FS
Info:     PISTON TEMPERATURE IS 300 K
Info:       PRESSURE CONTROL IS GROUP-BASED
Info:    INITIAL STRAIN RATE IS 0 0 0
Info:       CELL FLUCTUATION IS ISOTROPIC
Info: PARTICLE MESH EWALD (PME) ACTIVE
Info: PME TOLERANCE               1e-006
Info: PME EWALD COEFFICIENT       0.257952
Info: PME INTERPOLATION ORDER     4
Info: PME GRID DIMENSIONS         54 64 54
Info: PME MAXIMUM GRID SPACING    1.5
Info: FULL ELECTROSTATIC EVALUATION FREQUENCY      4
Info: USING VERLET I (r-RESPA) MTS SCHEME.
Info: C1 SPLITTING OF LONG RANGE ELECTROSTATICS
Info: PLACING ATOMS IN PATCHES BY HYDROGEN GROUPS
Info: RIGID BONDS TO HYDROGEN : ALL
Info:         ERROR TOLERANCE : 1e-005
Info:          MAX ITERATIONS : 100
Info: RIGID WATER USING SETTLE ALGORITHM
Info: RANDOM NUMBER SEED     2010
Info: USE HYDROGEN BONDS?    NO
Info: COORDINATE PDB         heat.coor
Info: STRUCTURE FILE         ionized.psf
Info: PARAMETER file: CHARMM format!
Info: PARAMETERS             par_all22_prot_cmap.inp
Info: USING ARITHMETIC MEAN TO COMBINE L-J SIGMA PARAMETERS
Info: SUMMARY OF PARAMETERS:
Info: 139 BONDS
Info: 345 ANGLES
Info: 452 DIHEDRAL
Info: 43 IMPROPER
Info: 6 CROSSTERM
Info: 95 VDW
Info: 0 VDW_PAIRS
Info: 0 NBTHOLE_PAIRS
Info:
Info: STRUCTURE SUMMARY:
Info: 15750 ATOMS
Info: 11282 BONDS
Info: 8666 ANGLES
Info: 6106 DIHEDRALS
Info: 408 IMPROPERS
Info: 144 CROSSTERMS
Info: 0 EXCLUSIONS
Info: 14612 RIGID BONDS
Info: 32638 DEGREES OF FREEDOM
Info: 5631 HYDROGEN GROUPS
Info: 4 ATOMS IN LARGEST HYDROGEN GROUP
Info: 5631 MIGRATION GROUPS
Info: 4 ATOMS IN LARGEST MIGRATION GROUP
Info: TOTAL MASS = 97179.8 amu
Info: TOTAL CHARGE = 1.65775e-006 e
Info: MASS DENSITY = 0.926646 g/cm^3
Info: ATOM DENSITY = 0.0904397 atoms/A^3
Info:
Info: ADDED 25925 IMPLICIT EXCLUSIONS
Info: NONBONDED TABLE R-SQUARED SPACING: 0.0625
Info: NONBONDED TABLE SIZE: 769 POINTS
Info: REMOVING COM VELOCITY 0.0623117 0.0838326 0.03909
ETITLE: TS BOND ANGLE DIHED IMPRP ELECT VDW BOUNDARY MISC KINETIC TOTAL TEMP POTENTIAL TOTAL3 TEMPAVG PRESSURE GPRESSURE VOLUME PRESSAVG GPRESSAVG
ENERGY: 0 469.0592 1295.4605 602.0414 70.4899 -53940.7563 4729.7342 0.0000 0.0000 9672.5702 -37101.4009 298.2694 -46773.9710 -37064.4502 298.2694 -871.1279 -790.9505 174149.0982 -871.1279 -790.9505
ENERGY: 100000 455.2987 1343.7030 586.3063 71.7629 -52986.4062 3581.8792 0.0000 0.0000 9747.2592 -37200.1968 300.5726 -46947.4561 -37159.7439 299.9579 -669.7920 -585.5364 154599.9590 24.2187 24.0132
ENERGY: 200000 457.1538 1342.9739 542.2251 64.9174 -53366.8288 3787.2067 0.0000 0.0000 9709.4398 -37462.9120 299.4064 -47172.3519 -37421.7219 300.0241 -289.2422 -207.5004 154076.6177 16.7368 16.5044
ENERGY: 300000 459.5469 1322.6131 549.3451 70.1026 -53240.7377 3905.9204 0.0000 0.0000 9743.5064 -37189.7031 300.4569 -46933.2095 -37154.8883 299.9907 17.7316 87.7255 153941.9598 2.7691 2.2921
ENERGY: 400000 425.6245 1316.3039 563.1276 81.6078 -53209.2189 3791.8431 0.0000 0.0000 9710.4359 -37320.2761 299.4371 -47030.7120 -37281.6171 299.9519 -296.1080 -200.9891 154024.2085 4.2314 4.0314
ENERGY: 500000 449.9452 1302.5335 566.4662 79.6635 -53470.7184 3891.5250 0.0000 0.0000 9712.2433 -37468.3418 299.4928 -47180.5851 -37428.4958 300.0285 -111.7934 -29.9211 154178.5360 -10.7828 -10.7649
