Info: SIMULATION PARAMETERS:
Info: TIMESTEP               1
Info: NUMBER OF STEPS        6000
Info: STEPS PER CYCLE        20
Info: PERIODIC CELL BASIS 1  52.05 0 0
Info: PERIODIC CELL BASIS 2  0 62.48 0
Info: PERIODIC CELL BASIS 3  0 0 53.55
Info: PERIODIC CELL CENTER   -10.6 5.2 -12
Info: WRAPPING WATERS AROUND PERIODIC BOUNDARIES ON OUTPUT.
Info: FIRST LDB TIMESTEP     100
Info: LAST LDB TIMESTEP     -1
Info: HOM BACKGROUND SCALING 1
Info: PME BACKGROUND SCALING 1
Info: MIN ATOMS PER PATCH    40
Info: INITIAL TEMPERATURE    0
Info: CENTER OF MASS MOVING INITIALLY? NO
Info: DIELECTRIC             1
Info: EXCLUDE                SCALED ONE-FOUR
Info: 1-4 ELECTROSTATICS SCALED BY 1
Info: MODIFIED 1-4 VDW PARAMETERS WILL BE USED
Info: DCD FILENAME           min.dcd
Info: DCD FREQUENCY          1000
Info: DCD FIRST STEP         1000
Info: DCD FILE WILL CONTAIN UNIT CELL DATA
Info: NO EXTENDED SYSTEM TRAJECTORY OUTPUT
Info: NO VELOCITY DCD OUTPUT
Info: NO FORCE DCD OUTPUT
Info: OUTPUT FILENAME        min
Info: RESTART FILENAME       min_restart
Info: RESTART FREQUENCY      1000
Info: SWITCHING ACTIVE
Info: SWITCHING ON           8
Info: SWITCHING OFF          12
Info: PAIRLIST DISTANCE      13.5
Info: PAIRLIST SHRINK RATE   0.01
Info: PAIRLIST GROW RATE     0.01
Info: PAIRLIST TRIGGER       0.3
Info: PAIRLISTS PER CYCLE    2
Info: PAIRLISTS ENABLED
Info: MARGIN                 2.5
Info: HYDROGEN GROUP CUTOFF  2.5
Info: PATCH DIMENSION        18.5
Info: ENERGY OUTPUT STEPS    100
Info: CROSSTERM ENERGY INCLUDED IN DIHEDRAL
Info: TIMING OUTPUT STEPS    100
Info: CONJUGATE GRADIENT MINIMIZATION ACTIVE
Info: LINE MINIMIZATION GOAL = 0.001
Info: BABY STEP SIZE = 0.01
Info: TINY STEP SIZE = 1e-006
Info: PARTICLE MESH EWALD (PME) ACTIVE
Info: PME TOLERANCE               1e-006
Info: PME EWALD COEFFICIENT       0.257952
Info: PME INTERPOLATION ORDER     4
Info: PME GRID DIMENSIONS         54 64 54
Info: PME MAXIMUM GRID SPACING    1.5
Info: FULL ELECTROSTATIC EVALUATION FREQUENCY      1
Info: USING VERLET I (r-RESPA) MTS SCHEME.
Info: C1 SPLITTING OF LONG RANGE ELECTROSTATICS
Info: PLACING ATOMS IN PATCHES BY HYDROGEN GROUPS
Info: RIGID BONDS TO HYDROGEN : ALL
Info:         ERROR TOLERANCE : 1e-005
Info:          MAX ITERATIONS : 500
Info: RIGID WATER USING SETTLE ALGORITHM
Info: RANDOM NUMBER SEED     1736943585
Info: USE HYDROGEN BONDS?    NO
Info: COORDINATE PDB         ionized.pdb
Info: STRUCTURE FILE         ionized.psf
Info: PARAMETER file: CHARMM format!
Info: PARAMETERS             par_all22_prot_cmap.inp
Info: USING ARITHMETIC MEAN TO COMBINE L-J SIGMA PARAMETERS
Info: SUMMARY OF PARAMETERS:
Info: 139 BONDS
Info: 345 ANGLES
Info: 452 DIHEDRAL
Info: 43 IMPROPER
Info: 6 CROSSTERM
Info: 95 VDW
Info: 0 VDW_PAIRS
Info: 0 NBTHOLE_PAIRS
Info:
Info: STRUCTURE SUMMARY:
Info: 15750 ATOMS
Info: 11282 BONDS
Info: 8666 ANGLES
Info: 6106 DIHEDRALS
Info: 408 IMPROPERS
Info: 144 CROSSTERMS
Info: 0 EXCLUSIONS
Info: 14612 RIGID BONDS
Info: 32635 DEGREES OF FREEDOM
Info: 5631 HYDROGEN GROUPS
Info: 4 ATOMS IN LARGEST HYDROGEN GROUP
Info: 5631 MIGRATION GROUPS
Info: 4 ATOMS IN LARGEST MIGRATION GROUP
Info: TOTAL MASS = 97179.8 amu
Info: TOTAL CHARGE = 1.65775e-006 e
Info: MASS DENSITY = 0.926646 g/cm^3
Info: ATOM DENSITY = 0.0904397 atoms/A^3
Info:
Info: ADDED 25925 IMPLICIT EXCLUSIONS
Info: NONBONDED TABLE R-SQUARED SPACING: 0.0625
Info: NONBONDED TABLE SIZE: 769 POINTS
Info: REMOVING COM VELOCITY 0 0 0
ETITLE: TS BOND ANGLE DIHED IMPRP ELECT VDW BOUNDARY MISC KINETIC TOTAL TEMP POTENTIAL TOTAL3 TEMPAVG PRESSURE GPRESSURE VOLUME PRESSAVG GPRESSAVG
ENERGY: 0 172.8984 1432.5683 422.6034 3.1201 -43051.8307 3052603.5578 0.0000 0.0000 0.0000 3011582.9173 0.0000 3011582.9173 3011582.9173 0.0000 4885625.8233 6356763.5197 174149.0982 4885625.8233 6356763.5197
ENERGY: 1200 126.4483 431.1555 408.2088 13.7959 -63696.2306 5870.8024 0.0000 0.0000 0.0000 -56845.8196 0.0000 -56845.8196 -56845.8196 0.0000 16487.6119 16495.8146 174149.0982 16487.6119 16495.8146
ENERGY: 2400 125.3370 424.4491 403.3403 13.9721 -64894.5544 6241.5334 0.0000 0.0000 0.0000 -57685.9225 0.0000 -57685.9225 -57685.9225 0.0000 17097.5735 17106.9340 174149.0982 17097.5735 17106.9340
ENERGY: 3600 124.3602 422.0151 396.4229 13.7574 -65348.7331 6400.5647 0.0000 0.0000 0.0000 -57991.6129 0.0000 -57991.6129 -57991.6129 0.0000 17384.2937 17393.0954 174149.0982 17384.2937 17393.0954
ENERGY: 4800 124.1063 421.9923 396.9102 13.3351 -65509.8691 6451.1824 0.0000 0.0000 0.0000 -58102.3428 0.0000 -58102.3428 -58102.3428 0.0000 17473.4746 17483.2117 174149.0982 17473.4746 17483.2117
ENERGY: 6000 123.5863 420.5731 395.8141 13.3759 -65637.2738 6507.2491 0.0000 0.0000 0.0000 -58176.6752 0.0000 -58176.6752 -58176.6752 0.0000 17585.7978 17594.0619 174149.0982 17585.7978 17594.0619
